# primitive CIF file created by Jmol 14.30.0  2019-11-26 10:18
data_primitive
_cell_length_a 6.8740745
_cell_length_b 15.214531
_cell_length_c 15.214651
_cell_angle_alpha 117.77903
_cell_angle_beta 98.66029
_cell_angle_gamma 98.661354

_symmetry_space_group_name_H-M 'P 1'
loop_
_space_group_symop_operation_xyz
'x,y,z'

loop_
_atom_site_label
_atom_site_fract_x
_atom_site_fract_y
_atom_site_fract_z
Mg	0.01746   	0.73188   	0.40646   
Mg	0.28557   	0.67454   	0.26812   
Mg	0.61101   	0.59353   	0.32543   
Mg	0.98254   	0.26812   	0.59354   
Mg	0.71443   	0.32546   	0.73188   
Mg	0.38898   	0.40647   	0.67457   
H	0.68498   	0.55489   	0.53285   
H	0.13009   	0.97793   	0.44510   
H	0.15215   	0.46707   	0.02203   
H	0.31502   	0.44511   	0.46715   
H	0.86991   	0.02207   	0.55490   
H	0.84786   	0.53293   	0.97797   
C	0.93276   	0.56632   	0.46542   
C	0.36646   	0.89909   	0.43369   
C	0.46734   	0.53456   	0.10090   
C	0.06724   	0.43368   	0.53458   
C	0.63355   	0.10091   	0.56631   
C	0.53267   	0.46544   	0.89910   
C	0.24300   	0.56422   	0.39109   
C	0.67878   	0.82686   	0.43578   
C	0.85191   	0.60891   	0.17314   
C	0.75700   	0.43578   	0.60891   
C	0.32122   	0.17314   	0.56422   
C	0.14810   	0.39109   	0.82686   
C	0.82381   	0.53079   	0.51802   
C	0.29302   	0.98723   	0.46922   
C	0.30580   	0.48194   	0.01275   
C	0.17620   	0.46921   	0.48198   
C	0.70698   	0.01277   	0.53078   
C	0.69422   	0.51806   	0.98724   
C	0.11487   	0.53380   	0.44726   
C	0.58108   	0.91345   	0.46620   
C	0.66760   	0.55276   	0.08655   
C	0.88513   	0.46620   	0.55274   
C	0.41893   	0.08655   	0.53380   
C	0.33240   	0.44724   	0.91345   
O	0.86136   	0.62839   	0.43502   
O	0.23296   	0.80661   	0.37161   
O	0.42631   	0.56494   	0.19338   
O	0.13866   	0.37160   	0.56498   
O	0.76704   	0.19339   	0.62839   
O	0.57369   	0.43506   	0.80662   
O	0.19169   	0.62664   	0.36184   
O	0.56507   	0.73518   	0.37335   
O	0.82985   	0.63815   	0.26481   
O	0.80831   	0.37336   	0.63816   
O	0.43493   	0.26482   	0.62665   
O	0.17015   	0.36185   	0.73519   
O	0.39939   	0.53074   	0.37275   
O	0.86864   	0.84201   	0.46927   
O	0.02662   	0.62725   	0.15801   
O	0.60061   	0.46926   	0.62725   
O	0.13135   	0.15800   	0.53073   
O	0.97338   	0.37275   	0.84199   
